Circuit: * C:\Users\Nejc\Projects\Projekti 2018\Self balancing robot\Documentation\Power Management\boost_converter_with_LTC3872.asc

Direct Newton iteration failed to find .op point.  (Use ".option noopiter" to skip.)
Starting Gmin stepping
Gmin = 10
Gmin = 1.07374
Gmin = 0.115292
vernier = 0.5
vernier = 0.25
vernier = 0.125
Gmin = 0.0748246
vernier = 0.0625
vernier = 0.03125
vernier = 0.015625
Gmin = 0.0745102
vernier = 0.0208333
vernier = 0.0277778
Gmin = 0.0706776
vernier = 0.037037
Gmin = 0.0650494
vernier = 0.0493827
vernier = 0.0658435
Gmin = 0.0566119
vernier = 0.0877914
vernier = 0.117055
Gmin = 0.0454047
vernier = 0.156073
Gmin = 0.0321554
vernier = 0.208098
vernier = 0.277464
Gmin = 0.0181382
vernier = 0.369952
vernier = 0.493269
Gmin = 0.00739327
vernier = 0.657691
Gmin = 0.00186279
vernier = 0.876922
vernier = 1
Gmin = 0.000232278
Gmin = 2.49407e-005
Gmin = 2.67798e-006
Gmin = 2.87546e-007
Gmin = 3.0875e-008
Gmin = 3.31518e-009
Gmin = 3.55965e-010
Gmin = 3.82214e-011
Gmin = 4.104e-012
Gmin = 4.40663e-013
Gmin = 0
Gmin stepping succeeded in finding the operating point.

Heightened Def Con from 0.000349281 to 0.000349281

Date: Sat Sep 08 09:43:20 2018
Total elapsed time: 5.446 seconds.

tnom = 27
temp = 27
method = modified trap
totiter = 619871
traniter = 618710
tranpoints = 154276
accept = 115360
rejected = 38917
matrix size = 33
fillins = 15
solver = Normal
Matrix Compiler1: 1.74 KB object code size  0.7/0.4/[0.2]
Matrix Compiler2: off  [0.3]/0.4/0.5

